
**** 07/15/24 00:08:46 ****** PSpice 23.1.0 (29 May 2024) ***** ID# 0 ********

 * Circuito Modulador PWM por Doble Flanco para Audio


 ****     CIRCUIT DESCRIPTION


******************************************************************************




* Definición de componentes
.include LM741.MOD           ; Modelo de amplificador operacional LM741

ERROR(ORPSIM-15347): Cannot open input file C:\Users\F May\Documents\pwmdfa\LM741.MOD.


ABORTING SIMULATION
**** 07/15/24 00:08:46 ****** PSpice 23.1.0 (29 May 2024) ***** ID# 0 ********

 * Circuito Modulador PWM por Doble Flanco para Audio


 ****     JOB STATISTICS SUMMARY


******************************************************************************



Node counts:
  Top level (NUNODS)                =           1
  External (NCNODS)                 =           1
  Total (NUMNOD)                    =           0

Total device count (NUMEL)          =           0

Number of subcircuits (X)           =           0

Analysis statistics:
  No. total time points (NUMTTP)    =           0
  No. rejected time points (NUMRTP) =           0
  No. iterations (NUMNIT)           =           0

Load Threads                        =           1

Runtime statistics:                       Seconds      Iterations
  Readin                            =        0.00
  General setup                     =        0.00
  CMI setup                     =        0.00
  Setup                             =        0.00
  DC sweep                          =        0.00               0
  Bias point                        =        0.00               0
  AC and noise                      =        0.00               0
  Total transient analysis          =        0.00
  Output                            =        0.00
  Overhead                          =         .13
  Total job time                    =        0.00
